<?xml version="1.0" encoding="UTF-8"?>
<routes>
    <vType id="AV" color="1,0,0" accel="2.0" decel="6.0" sigma="0" length="5.0" width="1.8" height="1.5" minGap="0.0" maxSpeed="40.0" guiShape="passenger/sedan" lcKeepRight="0.0" lcPushy="0.5"/>
    <vType id="BV" color="1,1,0" accel="2.0" decel="6.0" sigma="0" length="5.0" width="1.8" height="1.5" minGap="0.0" maxSpeed="40.0" guiShape="passenger/sedan" lcKeepRight="0.0" lcPushy="0.5"/>
    
    <!-- "lcKeepRight=0.0" means no tendency for keeping the rightmost lane -->
    <!-- "lcPushy=0.0" means no tendency for encroaching laterally on other drivers -->
    <!-- "lcSublane": Higher values result in increased willingness to sacrifice speed for alignment.  -->
    
    <route id="straight" edges="lane" />
    
</routes>
